Circuit: * D:\CraneSoft\Privat\Fahrrad-Anhänger\E-Antrieb\Arduino-BLE\LTspice\Current_OP.asc

Limiting rise time of source v2 to 0.0001
Limiting fall time of source v2 to 0.0001
Direct Newton iteration failed to find .op point.  (Use ".option noopiter" to skip.)
Starting Gmin stepping
Gmin = 10
Gmin = 1.07374
Gmin = 0.115292
Gmin = 0.0123794
Gmin = 0.00132923
Gmin = 0.000142725
Gmin = 1.5325e-005
Gmin = 1.6455e-006
Gmin = 1.76685e-007
Gmin = 1.89714e-008
Gmin = 2.03704e-009
Gmin = 2.18725e-010
Gmin = 2.34854e-011
Gmin = 2.52173e-012
Gmin = 2.70769e-013
Gmin = 0
Gmin stepping succeeded in finding the operating point.

Changing Tseed to 9.76562e-010
Heightened Def Con from 3.8196e-008 to 4.0196e-008

Date: Sun Oct 08 13:34:43 2023
Total elapsed time: 0.201 seconds.

tnom = 27
temp = 27
method = modified trap
totiter = 15913
traniter = 15346
tranpoints = 3580
accept = 2868
rejected = 712
matrix size = 88
fillins = 52
solver = Normal
Matrix Compiler1: 7.96 KB object code size  1.3/0.6/[0.4]
Matrix Compiler2: 8.52 KB object code size  0.8/1.0/[0.4]

